37
Coordinates from ORCA-job opt
  Pt  1.35442296964214      0.08177262143797     -0.79830531221295
  Br  1.87918766618650      0.32305866614161     -3.22400021598526
  Br  1.10090420655816     -0.16419980351647      1.67024188227391
  N   3.40447848356144      0.15973568098622     -0.46332421271525
  C   4.06992021286226     -0.98661214259093     -0.47265592059300
  C   5.45447335854222     -1.01803165603703     -0.25229465446977
  C   6.13824993124936      0.14647938744629     -0.02275787654556
  C   5.43938240106900      1.36404422594776     -0.01141214138855
  C   6.08336829973122      2.61050428363052      0.22050822362662
  C   5.38085380991437      3.76791062749759      0.22529514844665
  C   3.97844243689129      3.76695284714749     -0.00236239606115
  C   3.30164327810536      2.54977530489131     -0.23685874829339
  C   4.04684357459006      1.32148110691302     -0.24120924779545
  N   1.98214012718970      2.49540503097553     -0.45750255714079
  C   1.26807078408121      3.60157142418897     -0.46094461778935
  C   1.85796897287317      4.85784093306445     -0.23576022553866
  C   3.20599497392832      4.94070635855664     -0.00764463739944
  C   -0.19359334020007      3.46910996437010     -0.71336091153142
  C   3.31185361834398     -2.24566625847134     -0.72306868230438
  C   -0.74596607433202      0.06832776318667     -1.13374902172967
  C   -0.26289682693505     -1.23953269076989     -1.18647124747440
  H   5.96499094474826     -1.96782270397451     -0.26672069430616
  H   7.20426358616200      0.14290766184404      0.14939382118203
  H   7.14932079949879      2.60480420297584      0.39266810120021
  H   5.86934811716231      4.71489099568033      0.40159142723207
  H   1.24142209536148      5.74318968737636     -0.24539286194903
  H   3.68617939848231      5.89266511726897      0.16816536943852
  H   -0.63674162401815      2.83261074624909      0.05097824614441
  H   -0.35243030190255      2.99042258615948     -1.67833337645962
  H   -0.68753249598298      4.43616180216480     -0.70595013064299
  H   2.54151136128029     -2.37695052110311      0.04061783771525
  H   3.97248474677004     -3.10793330713835     -0.70291134326111
  H   2.82430297660519     -2.20094867050088     -1.69986762871508
  H   -1.29580522587909      0.39461227730473     -0.25452094101086
  H   -1.00925197428222      0.57296472387946     -2.05996643047144
  H   -0.41727064243818     -1.90757938591377     -0.34314709332557
  H   -0.13018462542013     -1.72878888726894     -2.14789693014937
