7
Coordinates from ORCA-job opt
  Pt  0.73563289443035     -0.14296889835159     -0.02634697978853
  Br  0.81527017767841     -2.51358140551991     -0.62512912139891
  N   2.55033487654354     -0.08232991128973     -0.10222019639024
  O   3.19158283429031     -0.30992391911403      0.92587251111986
  O   3.08679155271496      0.21576544642666     -1.17144763885701
  Cl  0.84796007188018      2.15662473638213      0.54564890635273
  Cl  -1.71426773997281     -0.10297943358604      0.10868186482861
