11
Coordinates from ORCA-job opt
  Pt  0.08805375980415      0.94622501273125      0.27016340072119
  N   -1.94717113701144      1.15368392445765      0.44578315371713
  H   -2.29176488675892      0.63200683105219      1.25391681835873
  H   -2.41668358380736      0.78715437812814     -0.38440354344661
  H   2.36782332164546     -0.25257125428315      0.01233711711224
  N   2.12325060707294      0.73878337882550      0.09421932858485
  H   -2.18943736057279      2.14272324431987      0.55719704200049
  H   2.59519971709602      1.13337695269506      0.91001943397789
  H   2.46285704152182      1.23492550356512     -0.73192047156337
  I   0.35718667118409      3.57075870970350      0.45961757364760
  I   -0.18080415017396     -1.67858668119514      0.08401014688989
