7
Coordinates from ORCA-job opt
  Pt  0.96426134409947     -0.00619256601846     -0.03938512068071
  I   0.90117099440293     -2.22203229177747      1.50027066447178
  Cl  0.90174093619811      1.37291268607607      1.91711010657988
  Cl  -1.42812771455240      0.09301503403945     -0.02037179098208
  Cl  0.90312083324196      2.02426194271014     -1.30717636063830
  I   0.90280535152287     -1.45051299099876     -2.31837743324092
  I   3.66208825508706      0.06528818596903     -0.02380006550963
