7
Coordinates from ORCA-job opt
  Pt  1.07429681107145      0.03159046623510      0.03827027144482
  F   1.05332925767984      1.23790318603572      1.63769156929210
  F   1.05439721732968      1.65844467678721     -1.13080140844195
  F   -0.92881430018135      0.06768759725188      0.04297461744365
  Br  1.02414389911676     -1.41894535523317     -2.01228749942626
  Br  1.02276136800954     -1.96243095183592      1.56554927954640
  Br  3.58575574697407      0.09337038075917      0.04863317014124
