7
Coordinates from ORCA-job opt
  Pt  1.01472396094414      0.04296839299468      0.06804236285758
  I   1.07343304019863     -2.60914178848254     -0.59772744684825
  I   1.07170289783217     -0.62279660503565      2.72019593420435
  I   -1.72066885906954      0.04208373719787      0.06714554154160
  I   1.07128690472163      2.69512042826477      0.73385090371450
  I   1.07301382200461      0.70878244025303     -2.58406637933991
  Cl  3.45179263901614      0.04374804758616      0.06884357596527
