7
Coordinates from ORCA-job opt
  Pt  1.04359636572260     -0.08245981397753      0.05579211735052
  F   1.02464470746101     -1.92041877758363      0.79821065514955
  F   1.02384521461672      0.65995344027308      1.89374490316864
  F   -0.95602309903789     -0.08309276358231      0.05581225915492
  F   1.02347468087729      1.75548705733448     -0.68662592405561
  F   1.02427416970446     -0.82488546958159     -1.78216014713639
  Br  3.52758796065581     -0.08167367288251      0.05576613636837
