46
Coordinates from ORCA-job opt
  Pt  0.24480232575605     -1.17862390226340     -0.33591860593641
  N   -1.58442851804599     -0.81420129490313     -1.25377753204300
  C   -2.61917348420407     -0.92785575822324     -0.21103583278201
  C   -2.26034895266073     -2.03163678929140      0.78940039057247
  N   -0.87816052965353     -1.87056427748831      1.27748768319656
  C   -0.34904514511850     -3.15180370244606      1.75263440942797
  C   -0.80788231676038     -0.89522307121301      2.36760286821994
  C   -1.63293207424082      0.50359753579395     -1.89039583494655
  C   -1.74392359366853     -1.84165280835911     -2.28590425863845
  O   1.96675735937236     -1.66386897004198      0.58820769192771
  C   3.06670156918473     -1.03465271169044      0.33288210121561
  O   4.12941219795226     -1.37859940331494      0.80871628145217
  C   2.98786828539848      0.22260134073474     -0.55587431129421
  C   2.41123284651719     -0.10022636898710     -1.94951149942957
  O   3.03830259527491      0.18200964096591     -2.94944784743964
  O   1.22940097927871     -0.61989869762883     -2.00380977732229
  H   -3.60113541369325     -1.13449250326296     -0.65828824159904
  H   -2.68533661303577      0.03023506206442      0.31174792361443
  H   -2.33774267176408     -3.00399212583561      0.29737857496222
  H   -2.97116482842421     -2.02208692907425      1.62680437817688
  H   -0.37368898528799     -3.88634332007577      0.94864206888760
  H   -0.92914460899979     -3.52475033280623      2.60406320250722
  H   0.69095314661187     -3.01677723856566      2.04768362354563
  H   -1.49307343230651      1.28749454443097     -1.14602311915253
  H   -2.59106428036968      0.65932336372436     -2.39884192106492
  H   -0.82376865561923      0.57168521476918     -2.61692364503744
  H   4.00902452456800      0.58570110987182     -0.69898827681765
  C   2.13821355842869      1.31069101064065      0.11406383611602
  H   2.09083891217057      2.17987435801440     -0.54755797785857
  C   2.69649324631563      1.72573909666270      1.47257151795343
  H   1.10548963314899      0.93116189810428      0.24715248905535
  H   3.69085220222215      2.15381002087902      1.33471259160539
  H   2.80891425738286      0.84226424355960      2.10438126657527
  C   1.79831087495897      2.74362520740410      2.17182085988793
  C   2.36381542846548      3.16084783573748      3.52372392043317
  H   0.80226961584647      2.31367804190829      2.31436494818561
  H   1.68909238369637      3.62589368333457      1.53646038158631
  H   2.47389564126457      2.29543131007237      4.17353825552869
  H   1.70823582089296      3.87872534240173      4.01234046385286
  H   3.34228247954211      3.61814212221379      3.39969939463243
  H   -2.69187564793101     -1.71274289906308     -2.82193638161563
  H   -1.71752978564741     -2.83713375427516     -1.84575377584317
  H   -0.91713674867045     -1.75658405310762     -2.99080294521806
  H   0.23400553327910     -0.76740684175248      2.65967655951154
  H   -1.38075127412704     -1.23898907907927      3.23735361922358
  H   -1.20102785730055      0.06926484946073      2.04747048218515
