7
Coordinates from ORCA-job opt
  Pt  1.06107346144077      0.07131585384895      0.08257798278033
  Br  1.06211171403731      2.60394962395798     -0.17411074523786
  F   1.06281803686314     -0.09329561854327     -1.91940688716104
  Br  -1.48403371977856      0.06817267002495      0.03226553327841
  Br  1.06011800394308     -2.46923961886617      0.24295276224584
  Br  1.05886834982833      0.27936938026171      2.61294417554231
  Br  3.60626415366593      0.06654770931586      0.03683717855202
