7
Coordinates from ORCA-job opt
  Pt  0.98592936489653     -0.06491358027650     -0.07095048207627
  Cl  0.98255617831803     -1.54860941133074     -1.91539496658875
  Cl  0.98255408342677     -1.90935582212624      1.41274995854955
  Cl  -1.38781540495147     -0.06491201041629     -0.07094818826847
  Cl  0.98256455189253      1.41878274486656      1.77349418117560
  Cl  0.98256212579579      1.77953005091604     -1.55464796146307
  Br  3.50290910062180     -0.06492197163283     -0.07095254132858
