37
Coordinates from ORCA-job opt
  Pt  1.21223100267689      0.47898939607152     -0.81753093842573
  Cl  1.60711549632749      0.71287748724224     -3.10868666873311
  Cl  0.81335768214640      0.24270839896581      1.47274646852676
  N   3.41600181463196      0.22013884722272     -0.46349566813204
  C   4.05211937638349     -0.95653087021033     -0.47380912738256
  C   5.44485441854387     -1.02070895351382     -0.24245877600804
  C   6.16812738551374      0.12725743389282     -0.00287144869683
  C   5.50729632529483      1.37302519047983      0.01044938215338
  C   6.16981397956077      2.61925216583211      0.24985387900977
  C   5.47499917685089      3.79341969870033      0.25046738880852
  C   4.06364413170946      3.81268660153961      0.01168867606144
  C   3.37985147780393      2.59578266818864     -0.22873730171312
  C   4.11138618856446      1.35952106282362     -0.22930066989424
  N   2.04635773467856      2.53484426377210     -0.46255689724264
  C   1.32108587756706      3.65878272474021     -0.47154032756520
  C   1.93524867703160      4.91028048583913     -0.23938031998707
  C   3.28972711124054      4.99154742346205     -0.00035668167943
  C   -0.15002643975543      3.54716860710863     -0.73349983302721
  C   3.24607910539543     -2.19207346311894     -0.73645815833047
  C   -0.79256331541105      0.13278069543497     -1.20024654614641
  C   -0.05614847328128     -1.11148080035891     -1.20096687959050
  H   5.93076045095131     -1.99098705713987     -0.25766018680779
  H   7.23986678524623      0.08352715119656      0.17559422016030
  H   7.24145963875590      2.60963198590748      0.43167075080806
  H   5.98242758295889      4.73726897977834      0.43278878414171
  H   1.31859977165858      5.80320642103909     -0.25354579197904
  H   3.76730738412178      5.95188937222786      0.17866185320634
  H   -0.61342630629723      2.90215053972668      0.02031178882214
  H   -0.31898654217817      3.07928863383690     -1.70896708646839
  H   -0.62585660536633      4.53068814444680     -0.71382547647953
  H   2.45803060073992     -2.28851359243363      0.01766066017827
  H   3.87915332990684     -3.08257095930888     -0.71792942117562
  H   2.75414427936868     -2.11404374457385     -1.71160671690744
  H   -1.42315713385966      0.37037509330362     -0.34591835870729
  H   -1.11080016881951      0.55632244389304     -2.15068206034157
  H   -0.15093259283176     -1.77943025762454     -0.34725100780195
  H   0.16159299880815     -1.59334180650699     -2.15196108215691
