11
Coordinates from ORCA-job opt
  Pt  0.23359038105986      0.79133420145885      0.15954223794775
  N   0.05982305872298     -1.29847238105541      0.12295474564352
  H   -0.96106960215903     -1.43796833235978      0.08551250167416
  H   0.41678873149036     -1.76311535236312      0.95920273880581
  H   2.79264077489034      0.51132033177226     -0.59202142490765
  N   2.32692278452861      0.89691001205437      0.23083484332204
  H   0.47455265458629     -1.73913807944963     -0.69948673629004
  H   2.74046561569892      0.48096424197060      1.06664929025359
  H   2.49992247411925      1.91304791514409      0.25446268467972
  Br  0.38389967860442      3.20718751245437      0.20063386608522
  Br  -2.18472655154200      0.71933993037340      0.07690525278589
