17
Coordinates from ORCA-job opt
  Pt  1.05043930727273     -0.02455273840191      0.08344345681625
  N   1.15336550795497     -1.17688905015184     -1.64786158393004
  H   1.23888578010244     -2.17528449620435     -1.42997393526481
  H   0.31319725628550     -1.06367789686736     -2.22482594094056
  H   1.94400762751926     -0.95619091999295     -2.25998880218547
  N   -0.67041063689130     -1.04512953463947      0.66055308152890
  H   -0.54172523282389     -1.51916519754457      1.56072959690425
  H   -1.46740037071767     -0.40831105099505      0.76471762245882
  H   -0.97618076432517     -1.76980479454232      0.00490146144047
  N   0.94745397334702      1.12782891828590      1.81474925645841
  H   1.78743807897544      1.01448868944708      2.39195607164257
  H   0.86220380620147      2.12621941416943      1.59673898233499
  H   0.15666143662297      0.90739360327538      2.42678838217569
  N   2.77127036891728      0.99609487568172     -0.49360627354623
  H   3.56818406662667      0.35933357504696     -0.59869548597993
  H   2.64250804079178      1.47117921860217     -1.39321205700309
  H   3.07726175414053      1.71995738483120      0.16284616708977
