5
Coordinates from ORCA-job opt
  Br  0.91280080503935     -2.65110597153490      0.71868408040769
  Pt  1.41470386760859     -0.29831943171142      0.06516890490569
  Br  3.68731526276272     -0.99267972951415     -0.68813217677454
  Br  1.91699567389493      2.05467025722638     -0.58731041576486
  Br  -0.85829560930560      0.39584487553408      0.81747960722602
