28
Coordinates from ORCA-job opt
  Pt  -2.04332293675604     -1.07517130524326     -0.17114411762827
  N   -1.84007383898977      0.97884755987725      0.20535203192288
  C   -0.39545307531535      1.24780877984692      0.25617342104180
  C   0.30979021151486      0.12307693890332      1.01733002809134
  N   -0.03467736917840     -1.16581582551027      0.40300957949857
  C   0.35670048249162     -2.31620845115811      1.21918535440363
  H   0.44196976596011     -1.25055009834574     -0.49849343370402
  C   -2.53806080379713      1.82880158709821     -0.76258476300851
  H   -2.24770446428224      1.15528335722968      1.12640084510421
  O   -2.03057293217509     -3.02516026263834     -0.63314738700164
  C   -3.11598431576516     -3.73000123326301     -0.56104814573228
  O   -3.17023551151977     -4.87945514239296     -0.93637666645857
  C   -4.32639457341231     -3.04404115449285      0.09324618507285
  C   -4.78070318504299     -1.81772274713245     -0.71691080411166
  O   -5.88919021136860     -1.75869610744649     -1.19932068206402
  O   -3.93157456385993     -0.84203893351712     -0.80228265496608
  H   -0.18147729734693      2.21766121568450      0.72383328144167
  H   -0.02550086216109      1.27697758825386     -0.77386613073607
  H   -0.03938128538327      0.10534029751234      2.05520859591729
  H   1.39466877079788      0.29123140977899      1.02560230669236
  H   -0.15673496580751     -2.27461704690904      2.17935544231625
  H   1.43686865352386     -2.33557691429057      1.39446267605262
  H   0.05419553397528     -3.22689551370131      0.70433159161412
  H   -2.12931778670521      1.65439628206255     -1.75686676578358
  H   -2.43660174098084      2.88921690079178     -0.51215858705297
  H   -3.59045058634454      1.55079560742373     -0.78095482015390
  H   -4.02501022230058     -2.70140192174864      1.09133394250556
  H   -5.14908088977082     -3.75389486667299      0.16775967672640
