27
Coordinates from ORCA-job opt
  Pt  -1.38224304065788     -0.03165193820457      0.08507916568289
  O   -2.70110347933304      1.28288672839649     -0.60396863164827
  C   -3.92070732004977      0.80659801844868     -0.57814203913081
  O   -4.87499645679986      1.44632091186620     -0.95590267657231
  C   -4.06540886030493     -0.64369523846326     -0.02652118662304
  O   -2.95048540924578     -1.22116523031902      0.34561638571667
  O   -5.13878131837207     -1.19555035870196      0.05044177401035
  N   -0.24182216044544     -1.62202051168351      0.83784759765884
  C   0.68190004487314     -1.39460737931818      1.94811417709241
  H   1.01652116237842     -2.34051232034448      2.38680233278408
  H   -1.04498582593360     -2.14907461997383      1.20070906142364
  C   0.36664327248969     -2.44318537398838     -0.21194047267736
  N   0.05771869014352      1.44705760923020     -0.28421681392189
  C   1.24252696690364      1.12837820621342     -1.07940114169829
  H   0.94914654116425      0.57348493351266     -1.96950994342394
  H   -0.55736753526927      2.03503751325771     -0.85906741625590
  C   0.40041466735569      2.22772320517776      0.90732908706417
  H   0.18930231153439     -0.80634684759160      2.72114509826190
  H   1.56119315633762     -0.85578611863595      1.59391740872300
  H   1.93168268479019      0.52231096922548     -0.49060267262816
  H   1.76890525509437      2.03701594006498     -1.38997756966445
  H   1.03504801546068      1.63801665395068      1.56865800122782
  H   -0.51339204578213      2.49612631805442      1.43647619795739
  H   0.93506783112083      3.14483665037583      0.63943964573614
  H   1.21428854082136     -1.91738218212920     -0.65115099582244
  H   -0.37198137059055     -2.63950035243729     -0.98844736259234
  H   0.72019568231655     -3.39903518598327      0.18814298931990
