8
Coordinates from ORCA-job opt
  Pt  0.56626995433199     -0.99524452016602      0.04631036830884
  N   -1.48288346669687     -1.20576069211188      0.09779715449231
  H   -1.88504788756780     -0.28459527402494     -0.10290334893684
  H   -1.77612389812307     -1.53552588067481      1.01784707393287
  H   -1.78039839876203     -1.89106374232462     -0.59725687088097
  Cl  0.65079338804481     -3.28076793105045      0.51833702485057
  Cl  2.85499508391563     -0.75282735885727     -0.01323869713612
  Cl  0.12947031800631      1.25253668171744     -0.41818906833030
