7
Coordinates from ORCA-job opt
  Pt  0.99495705495087     -0.00249631063632     -0.10428136398097
  I   0.99250311853082     -2.09445025841849      1.69054217545908
  I   0.99475022384591      1.79233149723352      1.98767761487226
  I   -1.76143262335257     -0.00076934074389     -0.10603592418693
  I   0.99741068608883      2.08946172779284     -1.89910972370237
  I   0.99516356667512     -1.79732243722405     -2.19623618384923
  I   3.75134797326103     -0.00422487800361     -0.10252659461184
