11
Coordinates from ORCA-job opt
  Pt  0.24805216156930      0.78409757007413      0.24753208320705
  N   0.02472791096266     -1.27619472132924      0.00705621197927
  H   -1.00210768354982     -1.37238810437551      0.01460790331523
  H   0.40753125535423     -1.83678037061838      0.76966480377136
  H   2.79469415443694      0.41390308161936      0.98655246550946
  N   2.32996664021753      0.90118934641235      0.21912680756334
  H   0.37756329419532     -1.64336695629531     -0.87783386265152
  H   2.47911305108617      1.91476457457396      0.33776213572110
  H   2.76029205490464      0.61174121108799     -0.66030266292450
  Cl  0.42394007774804      3.05033485155402      0.51465229463164
  Cl  -2.03931291692502      0.72391951729661      0.28659181987756
