11
Coordinates from ORCA-job opt
  Pt  0.17916451076884      0.86368572096931      0.25895263688759
  N   0.10206448162165     -1.33767473287788      0.11995636135504
  H   -0.49904862597605     -1.54425216453426     -0.67644767924390
  H   -0.39253614967135     -1.65004599714425      0.95430857577347
  H   2.88114397619146      0.01345353825005     -0.00300855807453
  N   2.35415083064032      0.87662187064314      0.09308592527555
  H   0.96346628638440     -1.86879781503018      0.02933273922616
  H   2.67548144306813      1.37420408292723      0.92272735867282
  H   2.55112434547766      1.47939593411472     -0.70504154151401
  Br  0.36736294285452      3.22328868933466      0.39901497324882
  I   -2.37791404135957      0.84134087334744      0.45252920839301
