11
Coordinates from ORCA-job opt
  Pt  0.21388589276654      0.84361198070443      0.35435217424312
  N   0.07866779040935     -1.32061769056982     -0.01238972567769
  H   -0.57376731690031     -1.43465324724094     -0.78666833500008
  H   -0.36508120964779     -1.71944783005821      0.81354266800931
  H   2.87718697817410      0.37852934122998      0.79112761894809
  N   2.34107603565987      0.89651134849031      0.10057534108025
  H   0.93014477994059     -1.83656544251934     -0.21513419023162
  H   2.47797758667937      1.90028713831973      0.26112798328491
  H   2.67636299229984      0.66558505309282     -0.83047466609838
  Cl  0.47518072033042      3.04872100507067      0.70879047262080
  I   -2.32717424971196      0.84925834348037      0.66056065882128
