11
Coordinates from ORCA-job opt
  Pt  0.08797939590930      0.94630054919114      0.26925443157601
  N   -1.93727581378312      1.15812756291239      0.44432006196525
  H   -2.28697277477309      0.64588262144630      1.25587867760250
  H   -2.41377778693659      0.79836949856137     -0.38445064724144
  H   2.32911099971292     -0.26349104962812      0.01009269101709
  N   2.11338414963048      0.73431339527838      0.09600288479004
  H   -2.15129217078212      2.15411234341113      0.55267933201445
  H   2.58958295211697      1.11488926049928      0.91558146083277
  H   2.46174294047398      1.22745038999362     -0.72789136571863
  Cl  0.28291819575116      3.24434752668902      0.44164993262283
  Cl  -0.10689008731990     -1.35182209835454      0.09782254053915
