5
Coordinates from ORCA-job opt
  Br  0.91410282859237     -2.64435406549624      0.71686268856177
  Pt  1.41470094480362     -0.29831950894202      0.06517019608802
  Br  3.68090012670088     -0.99057115113885     -0.68603458555210
  Br  1.91570049880164      2.04791462826903     -0.58549446597965
  Br  -0.85188439889852      0.39374009730808      0.81538616688198
