7
Coordinates from ORCA-job opt
  Pt  -0.22841907083363     -1.12656339147515     -0.15975336798823
  Br  0.67575783299893     -0.78731941773989     -2.47373161134412
  Br  -0.81614996652137     -1.47250381426341      2.25313250914330
  N   1.50443748155420     -1.19994824653718      0.37657341148082
  O   2.06120079475958     -2.29797224127918      0.39321369433601
  O   2.05808269028056     -0.15009878500050      0.70355835422647
  Br  -2.66532976074032     -1.02781462890156     -0.91456046238692
