11
Coordinates from ORCA-job opt
  Pt  0.26052331729258      0.78173026939319      0.33513202390848
  N   0.04983091316584     -1.27277751810195     -0.00142461421706
  H   -0.60743628387689     -1.39820117003643     -0.77523239514954
  H   -0.39426661500373     -1.68274202068539      0.82384866282093
  H   2.89445161153680      0.38423850307703      0.79398822797950
  N   2.35519583508186      0.90459327305019      0.10083035420463
  H   0.90154251331948     -1.79722837047962     -0.20794343493016
  H   2.50341315776768      1.91221183804353      0.25865921025412
  H   2.69710506147383      0.66774407081537     -0.83139605098215
  Cl  0.47539581879133      3.02807128906793      0.70498236898754
  I   -2.33129532954877      0.74357983585614      0.64396564712371
