7
Coordinates from ORCA-job opt
  Pt  1.07467894931687     -0.07003071293540     -0.02921159229294
  Cl  1.06847557464628      1.71173774782523      1.52848481476389
  Cl  1.06918907717617      1.48765255812874     -1.81099060658221
  Cl  -1.31140968797960     -0.06859801983758     -0.02981810567709
  Cl  1.06711963217242     -1.85179085121304     -1.58691161336198
  Cl  1.06640735137917     -1.62770573302907      1.75256653519213
  I   3.79452910328867     -0.07168498893888     -0.02850943204180
