7
Coordinates from ORCA-job opt
  Pt  1.08853510541767     -0.04000375890662      0.00272674660804
  Cl  1.05010375014907     -1.75044634167842     -1.67238370276950
  Cl  1.05350988627759     -1.77384826898028      1.65367869242645
  Cl  -1.30494186003099     -0.10595408404284      0.00471378308632
  Br  1.06793347583425      1.71291705329007      1.80523657100142
  Br  1.06426645825404      1.73810705309234     -1.77489253337793
  Br  3.60287318409836     -0.05719165277425      0.00003044302520
