7
Coordinates from ORCA-job opt
  Pt  1.09717280049447     -0.02649223778738     -0.01290432308044
  Cl  1.09229555869654     -2.04659725165815     -1.21170590298053
  Cl  1.10080835149501     -1.18469232205504      2.03075232985821
  F   -0.87946697090590     -0.01159071839510     -0.01168578130162
  F   1.10127571143892      1.70679462097343      0.98107971702710
  F   1.09414183785597      0.98444566729430     -1.73635982998518
  F   3.07382271092498     -0.01560775837207     -0.02097620953756
