7
Coordinates from ORCA-job opt
  Pt  0.90254138436509      0.02692810022285      0.01081841596124
  I   0.88730680546622     -2.66571281974281      0.39165676482456
  I   0.88801738993298      0.42243886581696      2.71841854152352
  Br  -1.63020292622857      0.03632165615582      0.00733981302909
  Br  0.89793999765106      2.53512874193320     -0.34222142451849
  I   0.89184340578830     -0.34397632741153     -2.70053842730922
  I   3.62217394302491      0.03634178302551      0.01110631648930
