5
Coordinates from ORCA-job opt
  Pt  1.29665886462619     -0.04671370162085     -0.36872938273818
  Br  1.78415618103823     -2.37783095870715     -1.01521318063988
  Cl  3.53104741326023      0.54902246954497     -0.83170216021254
  Br  0.80941681258137      2.28419064966960      0.27871384117534
  Cl  -0.93795927150604     -0.64225845888656      0.09338088241524
