7
Coordinates from ORCA-job opt
  Pt  1.09696299311754      0.10090840942560      0.04672602785302
  F   1.07331022721019      0.60492081839790     -1.86737119158706
  F   1.07782058857742     -1.82920218710372     -0.48364781381721
  F   -0.90466113106041      0.07903542117299      0.04339139465652
  F   1.07834673050493     -0.44393869594488      1.94965823285386
  Br  1.04600895959904      2.51138697809599      0.70918741410069
  Br  3.59688163205129      0.05606925595612      0.03107593594019
