42
Coordinates from ORCA-job opt
  Pt  1.03969457114617     -0.03120471053574     -0.66654414267993
  O   0.08918774696614      1.17882676758679     -1.97234380917566
  C   -0.12987614120381      2.41764051721598     -1.66869997572608
  O   -0.61025671971015      3.19835631980361     -2.46217390288882
  C   0.16848701985086      2.86742227185770     -0.22345452866920
  C   1.64734911489832      2.66713537273791      0.16141988651935
  O   2.12455338111995      1.46394799205646      0.13562311169210
  O   2.31519657355121      3.61273560235507      0.52331082192198
  N   2.18339445188994     -1.16328576051283      0.68642545072239
  C   1.50041236436457     -1.45655299566443      1.94808328941884
  H   2.19998609673432     -1.84362749322786      2.69647289639754
  C   2.92395325778434     -2.32250506060707      0.19243902885540
  H   2.86330295296356     -0.41618220038019      0.87666055669471
  N   -0.06349838567383     -1.49260674351268     -1.70050852528268
  C   0.71574290760225     -2.11146138233178     -2.77559885481530
  H   1.24565372980450     -1.33293515111131     -3.32307801965929
  C   -0.85935016444276     -2.47775545237689     -0.97145620886112
  H   -0.70774407534771     -0.83123297928039     -2.15167338321368
  C   -0.75978237705537      2.12305937396419      0.74622505612564
  H   -0.03070144549433      3.94128359942533     -0.17205628029767
  H   0.72091694387901     -2.20181084570095      1.78601407021576
  H   1.04687584929227     -0.54504478031550      2.33527706585840
  H   0.06736478654915     -2.65411528308544     -3.47141010799270
  H   1.43836202880896     -2.81242798016197     -2.35863910391931
  H   3.66411926807288     -2.66150346963908      0.92523078983296
  H   3.44126791264109     -2.06058210851435     -0.72929143714997
  H   2.23804773548611     -3.14811429263227     -0.00109833459837
  H   -1.45685684283893     -1.97970324570716     -0.20879127143514
  H   -0.20296052572526     -3.20406787134006     -0.49075468752707
  H   -1.53278806634808     -3.02090714434860     -1.64301581208821
  C   -0.54628845936329      2.54883875637488      2.19632210962786
  H   -0.58216526473219      1.03258237645233      0.65889556356871
  H   -1.79645108638866      2.31286550560084      0.45517083047896
  H   0.50079184998490      2.39965247727608      2.46946065435313
  C   -1.44242164231733      1.76951952194845      3.15650462942676
  H   -0.75533226070675      3.61581741710470      2.29037951663802
  H   -2.48857051297913      1.94006825882571      2.89189956102410
  C   -1.21320803813249      2.18399820515416      4.60469529428053
  H   -1.24786537034716      0.69762679080812      3.05154947412904
  H   -1.43172320239232      3.24098733215897      4.73470354140633
  H   -0.17732829081005      2.01446937535817      4.89074850172619
  H   -1.85404167138089      1.61518311692108      5.27503668506545
