11
Coordinates from ORCA-job opt
  Pt  0.16985843402305      0.86472037996527      0.26595199703977
  N   0.07783650937017     -1.32536846928306      0.12079937551492
  H   -0.55550040068269     -1.51016629136539     -0.65576261990612
  H   -0.40075379462159     -1.62589800610579      0.96860366411366
  H   2.70864554222450      0.53616848379725     -0.78579863840427
  N   2.35823481995731      0.89491984394108      0.09825626160567
  H   0.92388982350854     -1.87420796427183      0.00120181663011
  H   2.83678553519142      0.42400676791846      0.86130889147969
  H   2.57749445996383      1.89161076614588      0.14888825339107
  Br  0.27538081936301      3.22441657418546      0.40543542486776
  Br  -2.18906174829754      0.78120791507267      0.43630557366775
