7
Coordinates from ORCA-job opt
  Pt  0.99494686723698     -0.00252622561858     -0.10428085488239
  I   0.99249331647540     -2.07907308503227      1.67730834389035
  I   0.99474494955997      1.77933997695320      1.97261386325645
  I   -1.74124261316123     -0.00084911177434     -0.10602442452751
  I   0.99736745445620      2.07421017929983     -1.88606818383474
  I   0.99514221987558     -1.78430284778602     -2.18098627350723
  I   3.73124780555709     -0.00426888604181     -0.10253247039493
