25
Coordinates from ORCA-job opt
  Pt  -1.55657628158554     -1.27430633466010      0.77610326600727
  N   -1.50495734796315      0.78686416772634      0.52284812761078
  C   -0.24510456781757      1.12059380203574     -0.20966210803777
  C   0.87820828200555      0.24055533407447      0.32350410192933
  N   0.44854451334374     -1.18899690388581      0.24037240521632
  C   1.33366714498567     -2.11065962089071      1.01152026249401
  H   0.48459280074149     -1.47810251297409     -0.74140663058052
  C   -2.72362765180558      1.36096988483891     -0.11965344045597
  H   -1.44083865206126      1.17980583782825      1.46638643096652
  O   -3.48035662940307     -1.36205711468954      1.27129808809458
  C   -3.90428512908561     -2.60310052783957      1.53157497381417
  O   -5.04826279049062     -2.85564454153891      1.84346258332270
  C   -2.80778953182376     -3.70199235869853      1.39980605242051
  O   -1.60456513191066     -3.24484421990933      1.03794528408664
  O   -3.02998966649214     -4.87518651776591      1.60951136018576
  H   0.00531631153301      2.18414304850330     -0.10575024359188
  H   -0.42847037142845      0.91270381619047     -1.26843143717272
  H   1.06736093790024      0.45464415536377      1.38002489586222
  H   1.80846525087200      0.40910051232934     -0.23402622089338
  H   1.31333225311983     -1.80938728242425      2.05964574185779
  H   2.36066180459065     -2.07199527172858      0.62806640378552
  H   0.92451095399142     -3.11785696936269      0.92527537867134
  H   -2.80078613306627      0.95863748559790     -1.13055590533581
  H   -2.66420278407965      2.45577331592197     -0.15319665513833
  H   -3.59050758407024      1.03642881595757      0.45695728488095
