17
Coordinates from ORCA-job opt
  Pt  1.05043497314218     -0.02455862579056      0.08343374319448
  N   1.15154092591903     -1.17550189110272     -1.64380063409347
  H   1.24309092825701     -2.17593699956637     -1.43300796555637
  H   0.31590194237024     -1.06254758980659     -2.22914734855819
  H   1.94173447822440     -0.95769550257380     -2.25945580170594
  N   -0.66701774166633     -1.04194820593121      0.66104625043960
  H   -0.54337637898272     -1.52377597230448      1.55895187918914
  H   -1.47053749528850     -0.41114754331389      0.76168005944197
  H   -0.97650248143232     -1.76837312340630      0.00728257098954
  N   0.94928371202055      1.12644170996933      1.81068870745422
  H   1.78476901410698      1.01335549742489      2.39623885039276
  H   0.85799651307807      2.12688184556549      1.59980442086486
  H   0.15890810095174      0.90889692968666      2.42621149443608
  N   2.76788819335289      0.99293755385027     -0.49405699846244
  H   3.57129812138489      0.36214548647283     -0.59561570228843
  H   2.64407524412303      1.47575530018935     -1.39141453409252
  H   3.07768452776584      1.71857178865036      0.16042966389759
