7
Coordinates from ORCA-job opt
  Pt  1.04533981944492     -0.06053788039269      0.04486572757533
  I   1.09510805495845     -0.11915394232980     -2.69940791621599
  I   1.09316604326340     -2.80484737453269      0.10349991168943
  I   -1.71179792237515     -0.06010961941226      0.04336542950255
  I   1.09214039994573     -0.00193680101899      2.78919563664972
  I   1.09408242673359      2.68375685232604     -0.01371674375997
  Br  3.64181117802907     -0.06094123463960      0.04627795455893
