31
Coordinates from ORCA-job opt
  Pt  -1.59014365117678     -1.22474964897357      0.72125757572930
  N   -1.58653861257515      0.83878374090388      0.54957994259280
  C   -0.33812437065934      1.22620940324768     -0.13293661250335
  C   0.81172119019611      0.30953534363049      0.29739188552468
  N   0.40806534912289     -1.10478139817029      0.19177601803878
  C   1.21954442508017     -1.94535410601951      1.07627897241460
  C   0.54148361582917     -1.59687487252845     -1.18190404388799
  C   -2.75643423659776      1.28685972464287     -0.21067915071008
  C   -1.65470987836675      1.40450338159752      1.89952970608810
  O   -3.50377896664397     -1.37251625111389      1.24275747033383
  C   -3.89845327610486     -2.60330368968247      1.44445473428455
  O   -5.03009403144179     -2.88065528047153      1.77239505669629
  C   -2.79811750565347     -3.68121960285482      1.22936015721278
  O   -1.62937391346450     -3.20670649084407      0.88275296594630
  O   -3.00620697517536     -4.86516270938775      1.37104120282968
  H   -0.08578514403252      2.27309383123627      0.08161177573489
  H   -0.49354102382824      1.13310193424454     -1.21054179501145
  H   1.07039160939739      0.51517766742991      1.33895486480497
  H   1.70084242595492      0.50748509003677     -0.31580567897528
  H   1.11272743224030     -1.61395884509520      2.10902580717989
  H   2.27724982809943     -1.90857294401505      0.79250923794151
  H   0.86054516384760     -2.97186794658562      1.01206249289270
  H   -2.74134981217601      0.85343521941745     -1.21053127858978
  H   -2.77869179811582      2.37944609326102     -0.29071078536156
  H   -3.65728668305780      0.94024666245739      0.29436556819238
  H   -1.67908732771186      2.50014731901142      1.86250504525135
  H   -0.79660319721619      1.08986982669846      2.49221943963939
  H   -2.56088278103550      1.04431115519719      2.38574998587754
  H   1.58902458732301     -1.57164895532107     -1.50516990295698
  H   -0.05424135404664     -0.99406238291552     -1.86627987361842
  H   0.18066891198932     -2.62417126903405     -1.22343078359141
