9
Coordinates from ORCA-job opt
  Pt  0.05657716948469     -1.06202224274954      0.00192845664125
  N   -1.97724922071278     -1.07625000901112     -0.03355104952305
  O   -2.59101431937329     -0.59546444499067     -1.01206138464269
  O   -2.61792833106218     -1.57382907901667      0.91893249308588
  Cl  0.07843047319967     -3.16960191941841     -1.06059968885909
  N   2.09058848452290     -1.06528570080822      0.02805338431803
  O   2.70475351431293     -1.55661278128952      1.00102677111818
  O   2.73114938768483     -0.58407919847087     -0.93291582822088
  Br  0.03347989124471      1.16569880264011      1.12795987374964
