14
Coordinates from ORCA-job opt
  Pt  1.03941444982581      0.00017146400349     -0.04345148033022
  N   1.00244234302221     -2.07247561641541      0.02609658066572
  H   0.24973595980862     -2.34645889759416      0.66668220890261
  H   0.73027737788215     -2.42013440625263     -0.89915002989746
  H   1.85288107310617     -2.55943948941658      0.31468505592118
  N   3.22239617899720      0.01894846830259      0.20795619873358
  H   3.66573530537154     -0.78856710880901     -0.22486698248891
  H   3.45831353147905      0.00810913130183      1.19883760514384
  H   3.65449883953024      0.84367895214075     -0.20296747047882
  N   0.98101065346195      2.07202988658208     -0.11137737503534
  H   0.78977594977280      2.36093463547950     -1.07612346256783
  H   1.80043305445623      2.58333897510646      0.22159552787454
  H   0.17391339471072      2.37660316969942      0.44367963959943
  I   -1.51000811142469     -0.02551916412831     -0.35864601604234
