7
Coordinates from ORCA-job opt
  Pt  1.00855511250559      0.04105516653111     -0.03098504862964
  F   1.04525845566207     -0.19541230218753     -2.00263335499444
  Br  1.06692485672745     -2.45928253277427      0.21112150526660
  Br  -1.48183690003006      0.03392070357697     -0.08705775574067
  Br  1.05961417609350      0.33788440959584      2.44176954519979
  Br  1.06638967683315      2.52784270102964     -0.38717548786982
  F   2.99438462220829      0.03723185422823     -0.06370940323183
