7
Coordinates from ORCA-job opt
  Pt  1.08331545188438     -0.04640224325987     -0.02034374345448
  I   1.07913969075815      1.49653357219501     -2.28262647129467
  Br  1.08113513671422     -2.12741832543453     -1.43855155241155
  Br  -1.43499671321680     -0.04677518361459     -0.01595413156922
  I   1.08748777279370     -1.58932764427259      2.24194023213967
  Br  1.08549373878269      2.03461320538990      1.39786288791000
  Br  3.60163492228366     -0.04603338100333     -0.02473722131974
