7
Coordinates from ORCA-job opt
  Pt  0.92655617611099      0.08743677760388      0.04856874095036
  Cl  0.92627940425693     -1.66580667074357      1.69467973024929
  Br  0.92661125056088      1.82857934024412      1.87128068591254
  Br  -1.61158194309882      0.07514835447794      0.04824527074899
  Br  0.92684403475068      1.87503657341933     -1.72860394441978
  Cl  0.92649504652913     -1.62274403611837     -1.64223747744001
  Br  3.46469603089022      0.07464966111666      0.04856699399861
