42
Coordinates from ORCA-job opt
  Pt  0.90429525284303     -1.04133136296197     -0.20168949667310
  O   2.78548113561904     -0.63568691238465      0.30094201338974
  C   3.50612608541919      0.30945247475992     -0.30933342753813
  O   4.70755415040501      0.39328089550170     -0.11068187289698
  C   2.77682673562048      1.33736719158459     -1.18504183481770
  C   1.82438079968110      0.82277800866887     -2.27403564515831
  O   0.89285584116763     -0.07515902615520     -1.94070772834954
  O   1.86162121790778      1.28159465719036     -3.40414042782764
  N   -1.02630266773210     -1.45344004733022     -0.85073117001478
  C   -1.44368786385950     -2.86441051787951     -1.14107721064203
  C   -0.54997574633726     -3.49866389894133     -2.19746448767939
  H   -1.71802380291474     -1.01538569044732     -0.23903224577328
  H   -1.02738981728812     -0.91113844095180     -1.72687545354410
  N   1.05805435884811     -2.10525008133976      1.57784715566959
  C   0.16048473088375     -1.81140127311860      2.74187264633631
  C   0.28705493853353     -0.36262314001499      3.18961643319145
  H   1.04095393455961     -3.10968071238445      1.38743174413532
  H   2.03207208947501     -1.87805312210323      1.82588873523824
  H   3.55997154734474      1.88423154411359     -1.71387803929887
  C   1.99546580256263      2.34495997386962     -0.29141385334920
  H   -2.49082321638571     -2.85937957710831     -1.47038482817239
  H   -1.39323034911807     -3.41707074029052     -0.19749686572459
  H   -0.87110508010628     -4.52825180135913     -2.38405550920139
  H   0.49351957967650     -3.50062482278189     -1.86900432168926
  H   -0.60438198624969     -2.94594026952561     -3.14085402413944
  H   0.41552112748622     -2.49433286893143      3.56261901977510
  H   -0.86269584812795     -2.03671157565989      2.42524559600394
  H   0.03640003554293      0.31548600606103      2.36862885062544
  H   1.30846311558860     -0.13967660049507      3.51511537190085
  H   -0.38786835522038     -0.17418864581033      4.03040219679745
  H   1.21486538447023      1.79739743609523      0.25452980196396
  H   1.48658335700548      3.05143579185702     -0.95982921135968
  C   2.88226596912876      3.11845656654564      0.69072119025118
  H   3.40626762827639      2.41763752795646      1.35327439233364
  C   2.08658132840055      4.12361601355790      1.53418926026293
  H   3.66441776536931      3.64967700321804      0.13154927440164
  H   1.56204087277012      4.82267109452626      0.86815008843236
  C   2.96663163646137      4.91162016481944      2.51095648887834
  H   1.30593392752699      3.58930080571484      2.09460264975576
  H   3.48085217176697      4.23910733048936      3.20761807583445
  H   2.37436881739354      5.61960317560892      3.10152655491810
  H   3.73419339560515      5.48155746583642      1.97472011375395
