7
Coordinates from ORCA-job opt
  Pt  0.94838855745813     -0.01065572530638      0.08013714177488
  Br  0.94748856645811     -0.83564139481423     -2.33876925915913
  Br  0.96239619104974     -2.42952693170589      0.90510747667816
  Br  -1.60729364670066     -0.02366192792831      0.08554421576903
  Br  0.94928854609530      0.81433032123810      2.49904344781718
  Br  0.93438081496388      2.40821554545578     -0.74483329388169
  Br  3.50407097067550      0.00235011306093      0.07473027100157
