27
Coordinates from ORCA-job opt
  Pt  -1.34601305630140     -0.03373168402384      0.08946969075602
  O   -2.65747959017320      1.29713797687131     -0.58705115621689
  C   -3.90740147693813      0.81371625831898     -0.57018187896592
  O   -4.86442258395039      1.45301467212624     -0.94554679237397
  C   -4.05143138480770     -0.65097916616489     -0.02585257330890
  O   -2.90497573284917     -1.24024795566501      0.34131571417511
  O   -5.12712665522657     -1.20090123598054      0.05161764779924
  N   -0.26723742866694     -1.66300781573785      0.83667451269214
  C   0.60309293181506     -1.43490574575443      2.01917467029438
  H   0.95732342980743     -2.38927395989585      2.42968106492402
  H   -1.07795558768361     -2.21210227046854      1.14979627643569
  C   0.42753589853239     -2.47795413779828     -0.19946105325952
  N   0.03679365854931      1.48880458210757     -0.29236734653836
  C   1.19464842631407      1.17263837441817     -1.16842833528095
  H   0.83182124222791      0.66774919633888     -2.06430255150734
  H   -0.59651217066329      2.09919485065909     -0.82450113256648
  C   0.46184874448824      2.25858015197317      0.91077593578609
  H   0.03530120895964     -0.89214752604032      2.77558328512045
  H   1.46662123450053     -0.83935208708413      1.71435153789367
  H   1.87764634335020      0.51244245401647     -0.62904955243173
  H   1.73185890785460      2.08863854332910     -1.44613370625068
  H   1.09586725334766      1.62498345941585      1.53364806525863
  H   -0.42761621637727      2.54460996687675      1.47225211665694
  H   1.02419137454135      3.15365301703960      0.61441238163645
  H   1.26807021890698     -1.90673508819179     -0.59772817636960
  H   -0.27738030131244     -2.69295607751855     -1.00263104714953
  H   0.80021131175477     -3.41458875316714      0.23535240279103
