35
Coordinates from ORCA-job opt
  H   2.11370575326047     -3.29287092992890      0.95614789322168
  C   1.34818080217415     -2.54778268318382      1.19560611260105
  N   1.14858385860167     -1.63393447231418      0.07161550470812
  H   2.09603897207201     -1.19918820323595     -0.13522226499217
  C   0.76563907185066     -2.35113630801733     -1.14062429955005
  Pt  0.20465689698261      0.13775808855859      0.58639221117987
  N   -1.74651144092316     -0.53807600978234      0.41065731893302
  C   -2.16492956642199     -1.76936535765745      1.07359245456462
  H   -2.18907973287604      0.25444770124290      0.96338513915700
  C   -2.28567663103158     -0.44893949342475     -0.94567614850379
  H   -3.37915734974810     -0.49996559826041     -0.93052145286979
  O   -0.49273688113240      2.02189129746343      1.08495261974553
  C   -1.60575022960606      2.36302754213904      1.57836633368314
  C   -1.69882398478472      3.81787449580440      2.01371727670026
  O   -2.58921227559443      1.62177599338814      1.71844366037057
  O   2.04741534869768      1.03610478594112      0.87267762761713
  C   3.17327928808238      0.73337697977888      0.38341374279985
  C   4.28012912356818      1.74571436804639      0.63812456858593
  O   3.42677144157020     -0.29690245602045     -0.25736884124657
  H   1.67671183302001     -1.98149507162912      2.06740764083011
  H   0.42205391888381     -3.07031993409602      1.43947274114812
  H   -1.91055943530810     -1.26412542246066     -1.56614116584847
  H   -1.98948120056660      0.50142786118666     -1.39028912062161
  H   -2.67426546737386      4.21701550688323      1.74986225073133
  H   -0.90486558271333      4.39545433162283      1.55129023021902
  H   -1.58966703441780      3.85810773463839      3.09542829483368
  H   4.43544231040372      2.31867593265476     -0.27355562694128
  H   5.20282227733286      1.22546354329744      0.87998002842714
  H   3.99174597032597      2.41739530309070      1.44028327900565
  H   -3.25705539548460     -1.82190551345825      1.12818239292377
  H   -1.76978455809196     -1.78741357025615      2.08844480527578
  H   -1.81117033216460     -2.64813755236629      0.53119612974139
  H   1.53673804280656     -3.07859245524196     -1.41393329385475
  H   0.65567767511089     -1.64360286256246     -1.96141220468502
  H   -0.17271548650448     -2.89062757184040     -0.99917583789025
