7
Coordinates from ORCA-job opt
  Pt  0.90710670848872      0.00199294610642      0.06618841861325
  Br  0.90241820889925     -2.43203052362818     -0.58710502958529
  Br  0.90860489743270     -0.64331686703603      2.49386032378356
  Br  -1.61317918859496      0.00792417565105      0.06294721432177
  Br  0.91180623378907      2.43920967073546      0.70769913940640
  Cl  0.90566573642709      0.61045897282695     -2.22484382233842
  Br  3.42738740355812     -0.00051837465567      0.05757375579873
