40
Coordinates from ORCA-job opt
  Pt  1.02457047069330     -0.69538494937805     -0.73068550824823
  N   0.29005425209318     -1.32644713616398     -2.56783578496208
  C   -0.96221840418535     -2.09514655671874     -2.29321178230620
  C   -0.75592739372079     -2.95096576155556     -1.05003130768306
  N   -0.29821012483315     -2.07916527623580      0.07566115831680
  C   0.22576498962484     -2.86264761000857      1.23433515180771
  H   -1.09930531864598     -1.53558869266228      0.40896299933986
  C   0.09969386291231     -0.25556848404247     -3.59005825218554
  H   0.99299575596847     -1.97532663823587     -2.93439916437916
  O   1.69591271083154     -0.26056611064554      1.09036424250465
  C   2.34320974366057      0.86885988831736      1.38125583879438
  O   2.85527407999660      1.02033781100572      2.48044995039142
  C   2.36282343848580      1.99096017249718      0.33718759377356
  C   2.82860101973807      1.60444088794105     -1.07240462253510
  O   3.63526063896918      2.29416240659266     -1.67759037776890
  O   2.28270051294935      0.53681370086498     -1.65523690835432
  H   -1.24214289306317     -2.71677976103682     -3.15361497484988
  H   -1.75555344046878     -1.35951228757998     -2.12850922514867
  H   0.03383210469800     -3.68970735775507     -1.21874576980857
  H   -1.67640712791399     -3.48736926127499     -0.78637594151774
  H   -0.56122551329713     -3.50243325646856      1.65164555214569
  H   0.59439346426743     -2.15436846932680      1.97664601916318
  H   1.05939228578919     -3.47371649184675      0.88541957758998
  H   1.04633895028444      0.27513405126000     -3.69476521523942
  H   -0.66027590325913      0.43671458349049     -3.22489407203470
  H   -0.21637038721240     -0.69049697302323     -4.54604327784329
  H   3.08133257304461      2.72886083527076      0.69966665926126
  C   0.96790918200683      2.67232794497931      0.23814591139281
  H   1.03545984593351      3.45480109330638     -0.52942995367785
  C   0.49850107105911      3.29368605445435      1.55965144010571
  H   0.24476801052275      1.92711706902611     -0.11938289039526
  H   1.25808239361661      4.00835877323024      1.90134335093716
  H   0.44002997256773      2.51878989700408      2.33516196287847
  C   -0.85595763130985      4.01514237286722      1.45390945434071
  C   -2.04617889737592      3.08403247319597      1.18794513069952
  H   -0.80296768242529      4.77510695959513      0.66177694761523
  H   -1.03566520631097      4.55893203972650      2.39028806981756
  H   -1.94841288215178      2.56675072814577      0.22674280403047
  H   -2.98812226908694      3.64367037958357      1.16787312308677
  H   -2.12600025445280      2.32136095160420      1.97257209094511
