7
Coordinates from ORCA-job opt
  Pt  1.02005223191492      0.07968886573478     -0.04288709872924
  Br  0.97873447103025     -0.00723608996974     -2.60652840155960
  Br  0.98582663292894     -2.48406106269718      0.04400609890444
  Br  -1.52986233780815      0.07523744321828     -0.04022193563549
  Br  0.98378875318588      0.16647804245696      2.52083772664565
  Br  0.97669661013667      2.64329974220652     -0.12969874086931
  I   3.73740363861148      0.08443305905037     -0.04572764875646
