40
Coordinates from ORCA-job opt
  Pt  1.02100224929889     -0.44438817183191     -0.60557606071710
  N   0.16863887703778     -1.02157405131223     -2.43380333701865
  C   -1.12462075148777     -1.65368183391965     -2.14317873908427
  C   -1.00042253582248     -2.49154901642785     -0.86811819426866
  N   -0.49228870017226     -1.65270021006225      0.22701290321014
  C   -0.04112400847702     -2.43828782132640      1.37821313840730
  H   -1.23861060443265     -1.03226967806011      0.54944070589027
  C   0.08930333703596      0.01273150373778     -3.46610163029793
  H   0.82939310058179     -1.73261197741229     -2.75783340852843
  O   1.83062619291428     -0.06830525501539      1.19144077796984
  C   2.53496703665693      0.99510551120413      1.40629799316892
  O   3.11928083668255      1.17470738321427      2.45484809406761
  C   2.57171101820927      2.07498816790584      0.30615446861488
  C   3.14631149731912      1.50872583959546     -1.00852818829400
  O   4.11073080140957      2.02560141904407     -1.53114870932393
  O   2.52222187646227      0.51298335311571     -1.54959766583880
  H   -1.46691214004209     -2.27978892392629     -2.97776845803313
  H   -1.86248386404887     -0.85835469559560     -1.99081785946347
  H   -0.27904837677468     -3.29845453273801     -1.03353481035591
  H   -1.96776835292524     -2.94457972217444     -0.61429978272353
  H   -0.85802002118460     -3.02691599478552      1.80742189487921
  H   0.36316915159423     -1.76151533837097      2.12931884695076
  H   0.75915064754353     -3.10873169459859      1.06810261412244
  H   1.07980416823856      0.44553284540549     -3.60162672225385
  H   -0.59212570704445      0.79994663823196     -3.14379359062660
  H   -0.26569023465662     -0.39467555053150     -4.41803045351072
  H   3.23891345330338      2.86843408099082      0.65206438852851
  C   1.17040790883200      2.63673570541240      0.03314781528931
  H   1.25032306681477      3.45116270007002     -0.69113107143202
  C   0.46470353796193      3.12966073913369      1.29631172457713
  H   0.56871995018352      1.83686076388062     -0.43417819932214
  H   0.89129172783387      4.08993354895618      1.59029083066314
  H   0.64579462993375      2.42971829646086      2.11376285654995
  C   -1.04502672757991      3.27983261717498      1.09427401961394
  C   -1.76316159389276      1.93382412817282      1.06446173749765
  H   -1.23614816508374      3.81982157108633      0.16376679841843
  H   -1.45656358156629      3.87458469355157      1.91210814801273
  H   -1.38327196312278      1.31294678779039      0.25171994259041
  H   -2.83307749720822      2.07145118315139      0.91885476706255
  H   -1.60414024032551      1.40826499080224      2.00384241500805
