7
Coordinates from ORCA-job opt
  Pt  1.07930389565151      0.02413938255038      0.03719370481608
  F   1.04800845341525      1.22700170671175      1.61234999316201
  F   1.04845749961748      1.63992991693241     -1.11073893928507
  F   -0.90244516005595      0.07586526411419      0.04476352342211
  Br  1.02279727178078     -1.40694912699290     -2.00023853529742
  Br  1.02098686153167     -1.94829469567533      1.55724010145553
  Br  3.56876117805927      0.09592755235949      0.04946015172675
