37
Coordinates from ORCA-job opt
  N   0.51006669078166      2.03285911297798     -2.08136012434891
  C   -0.68185160355093      2.94292298708535     -2.03850441506768
  H   1.32583672681732      2.52564114800631     -1.69049390967349
  H   0.73558441250353      1.82184336354099     -3.05548055307176
  Pt  0.55286082943662      0.32038330395472     -0.90193051637943
  O   2.04070787888709      1.35016651486302     -0.07946201765175
  C   2.96749297580166      0.76914003819269      0.68737530952998
  C   3.01777198072204     -0.76870938924013      0.70299267187927
  C   4.28725831254343     -1.29508374143611      1.42183684289842
  C   5.01390152911088     -1.38445271908626      0.05511442440764
  C   3.64083598093533     -1.28938461593728     -0.65693806768867
  O   3.78034964672989      1.45346803621003      1.28778149935039
  N   -1.04452736203715     -0.81586549462420     -1.60071513989614
  C   -0.80582632244994     -1.75037895707449     -2.75114081723927
  H   -1.22333694379083     -1.38391809045618     -0.76254528131886
  H   -1.89052128415897     -0.27042090984574     -1.77858092435095
  O   0.62815665532940     -1.22190524908282      0.35000836309683
  C   1.71227436968898     -1.47589466059664      1.08838449361880
  O   1.66644247764707     -2.30816080178004      1.97961681134943
  H   4.08441645157359     -2.27267815447958      1.86348555134443
  H   4.71058480916197     -0.62197012730431      2.16806199101976
  H   5.60567536217786     -2.28345166831153     -0.14040630730006
  H   5.63101359277344     -0.50252841190547     -0.13622623967027
  H   3.23320632714620     -2.27133183036620     -0.91596518782914
  H   3.54672276431804     -0.62452249511835     -1.52038323444237
  H   -1.53475914896340      2.37748676485881     -2.42713515255864
  H   -0.50320241475206      3.78635212063260     -2.71801328232697
  C   -0.95020204724885      3.43770640275527     -0.62422583084899
  H   -1.82674964134776      4.09332854631329     -0.62197505117953
  H   -0.09681002971389      4.00407590722740     -0.23774442925294
  H   -1.12880556944708      2.59564310892433      0.05086372013552
  H   0.03394877976698     -2.38386397350354     -2.45874034149988
  C   -0.50022237519869     -1.00229666974657     -4.03963404873798
  H   -1.69176791396176     -2.38674217673583     -2.87366875961560
  H   -0.37371441638907     -1.71361591967002     -4.86141865100941
  H   0.42655269313172     -0.42983802139545     -3.93563849517699
  H   -1.31455417397437     -0.32005327784606     -4.31301490049472
