7
Coordinates from ORCA-job opt
  Pt  0.91410180694019     -0.04309622227707      0.03246921172972
  Br  0.91056351228902     -2.13161046577139      1.43886500639303
  Br  0.90006458937023      1.36589036481075      2.13787230396923
  Br  -1.61941684492009     -0.04601024926234      0.03501836437799
  Br  0.90286679183588      2.05350347229031     -1.36172728371010
  I   0.90886640563650     -1.55658456070972     -2.22833877906132
  I   3.63484373884827     -0.02830233908055      0.04687117630144
