9
Coordinates from ORCA-job opt
  Pt  0.78440995392871      0.22494888661037      0.09374741334224
  N   -1.23821293571758      0.14053270641226      0.29522394939235
  O   -1.74492924740657     -0.17111732970600      1.39529239096907
  O   -1.97671298358411      0.39993396017863     -0.68011009944172
  N   2.80722801246950      0.30884060621393     -0.10582746042312
  O   3.54360403627335      0.04899803561286      0.87102800388866
  O   3.31634626235913      0.62022059227837     -1.20482865978370
  Br  0.75064513076254      2.63358898327372      0.75941587168942
  Br  0.81802005310622     -2.18302339122807     -0.57434407028426
