7
Coordinates from ORCA-job opt
  Pt  0.95780300856096      0.00222066394103     -0.07311221222218
  Br  0.95795841614692      0.68144731833567      2.35968250144674
  F   0.96015918988311      1.94254296351515     -0.57770294542582
  F   -1.02129494619434      0.02685546515010     -0.07943432315078
  Br  0.95775286618206     -0.58980685180104     -2.52858783002808
  Br  0.95484610851571     -2.43266042204701      0.56005811821665
  F   2.93695535690557      0.02231086290609     -0.07841330883652
