30
Coordinates from ORCA-job opt
  Pt  -2.29780807156333     -0.72773733325012      0.17559444683257
  O   -1.62032579336096      0.44274863382061      1.62525359754191
  C   -1.30333454700254      1.72606301598850      1.41612125700500
  O   -1.07155665775905      2.46243539316620      2.36042168759759
  C   -1.15359909138881      2.21581391201170     -0.02994769804438
  C   -2.31316637255512      1.95218522235289     -1.00080344850257
  O   -2.79875318021264      0.70921679737279     -1.09548835066466
  O   -2.73761426331324      2.83438917984626     -1.72767054867659
  N   -3.10687094659973     -1.84838901051899     -1.37486942960329
  H   -2.44858092789235     -2.45868738320036     -1.86160295790011
  H   -3.93474400973984     -2.39669852667278     -1.13656129100727
  H   -3.39231569955917     -1.10339805805617     -2.02511574118867
  N   -1.80969058120747     -2.14292196853454      1.61477784264425
  H   -1.47347355643000     -1.54059675392739      2.37839499029733
  H   -2.59363291415432     -2.69390592197313      1.96765492441978
  H   -1.05678156767362     -2.78409819644926      1.36064763764475
  C   0.15522066268185      1.64866892356605     -0.65595934391939
  H   -1.06222619018201      3.30193580822962      0.03176736986655
  C   1.42616396904857      2.11475681186522      0.06596324366454
  H   0.19281651518973      1.97901261786258     -1.70240702725068
  H   0.08805186939019      0.55298827546274     -0.66300968552728
  H   1.45694441056625      3.21171232967229      0.04668845472075
  C   2.72051598147986      1.56648224294741     -0.55957265592078
  H   1.38098535155293      1.82983954398539      1.12499290461933
  H   2.73241678502420      1.80076891914646     -1.63319762246696
  C   2.92576777959371      0.05871979321235     -0.36373252111201
  H   3.57407406531179      2.09782397390316     -0.11976396947046
  H   2.12449223139576     -0.52396149416377     -0.83221305442430
  H   2.94575029446910     -0.19536973485459      0.70313838643106
  H   3.87454290465682     -0.26972675012388     -0.80310372997499
