7
Coordinates from ORCA-job opt
  Pt  1.10078752763460      0.10458046207686      0.04773937877685
  F   1.06549739691507      0.59614245528050     -1.86462487917430
  F   1.06824722990874     -1.80367588389152     -0.47646617039014
  F   -0.87798484539876      0.06958324910381      0.04045443858330
  F   1.07032738380960     -0.44965385943993      1.94299127335892
  Br  1.04528607226904      2.50700792038730      0.70847894402481
  Br  3.59250923486169      0.05519565648298      0.03044701482057
