5
Coordinates from ORCA-job opt
  Pt  1.01479235315008     -0.12888034669195     -0.03486119452132
  Cl  1.32105952823325     -2.46161265277778     -0.05344380243789
  Cl  3.33968408429691      0.06111521092002      0.27265169086010
  Br  0.79135362507068      2.31646894849282     -0.00378436499315
  Br  -1.40189959075091     -0.42419115994310     -0.35582232890773
