7
Coordinates from ORCA-job opt
  Pt  0.90917889378680     -0.09022321645394     -0.02090925914979
  Cl  0.95139265851490     -1.85590180430399     -1.58992896255188
  Cl  0.94911065584085     -1.61972268752067      1.76362452240562
  Cl  -1.44116737485027     -0.06375738064881     -0.05089595020829
  Cl  0.95138238620874      1.73032448235559      1.48413254025659
  F   0.94094205624459      1.19898116772669     -1.52608312675222
  F   2.89104072425439     -0.06936056115486     -0.04525976400003
