5
Coordinates from ORCA-job opt
  Cl  0.51295638612802     -2.67696171137065      1.05999084223227
  Pt  0.85687082294887     -0.40730209308233      0.59941966375457
  Cl  3.07342754097000     -0.79465356607913      1.24641874876011
  I   1.42398543292764      2.13847958000502      0.12618317046500
  I   -1.68762018297453     -0.14754220947293     -0.09717242521195
