11
Coordinates from ORCA-job opt
  Pt  0.24696092235702      0.78137176722395      0.24821416431085
  N   0.06505762254447     -1.30844696348174      0.12501458390289
  H   -0.54018530875629     -1.51761535219678     -0.67239819030505
  H   -0.43639078956811     -1.62148841022013      0.95968219034566
  H   2.89693005516872      0.04255237669233     -0.00481470125405
  N   2.35430152237482      0.90173375693182      0.09441605891210
  H   0.92473122886257     -1.85275767610703      0.03548833044442
  H   2.67466163933863      1.40225748923541      0.92639549074437
  H   2.54899293965810      1.51100546227537     -0.70323465723078
  Br  0.42263806489856      3.19178198944551      0.39297193325743
  I   -2.35323789687847      0.74082556020128      0.44367479687216
