7
Coordinates from ORCA-job opt
  Pt  0.29939421238961     -0.97724310738822      0.13212870934723
  N   -1.68116117104765     -1.02867310502420     -0.04379981044450
  O   -2.21902455681236     -0.74873339347599     -1.13731076582717
  O   -2.38814075250486     -1.34097815379137      0.93910256511939
  Cl  0.38758098906265     -3.24315862897166     -0.50665596236663
  Cl  0.15730166107774      1.28721479216143      0.76631234344762
  Br  2.83532184655860     -0.91161965081793      0.35776514637277
