7
Coordinates from ORCA-job opt
  Pt  0.97395772640504     -0.09701646281977      0.00138233961409
  Cl  0.96955985158025     -1.83973652886680      1.59232426904066
  F   0.97333680051717      1.23543347426370      1.46064982258195
  F   -1.00196460463426     -0.09475493691102     -0.00154474680106
  Cl  0.97834580242367      1.64570299053747     -1.58956074995805
  F   0.97457536247104     -1.42946856878514     -1.45788714225460
  F   2.94987906123710     -0.09927996741845      0.00430620777700
