37
Coordinates from ORCA-job opt
  N   0.57685074545957      2.14059117648197     -2.07831493208800
  C   -0.65257191677188      2.94569414706287     -2.06519951051816
  H   1.31080070771531      2.66516191567217     -1.58868678065335
  H   0.89250372538430      1.98456758283794     -3.03553229565100
  Pt  0.57733507509334      0.45391840981866     -0.78345624325516
  O   2.00823418208035      1.51092097886331      0.16050572447748
  C   2.90756352557800      0.86541476643027      0.83317801795034
  C   2.94058409871104     -0.65803843292173      0.62583036332176
  C   4.25360474463323     -1.32224984284399      1.05586484555595
  C   4.57720278879270     -1.63445797570742     -0.41279318877953
  C   3.21970433595812     -1.05691815274714     -0.84686985671568
  O   3.71736660909078      1.42481111374832      1.53965855270300
  N   -1.02337165530386     -0.66620603620449     -1.60184639981470
  C   -0.62231092377475     -1.76054283977630     -2.49883759821364
  H   -1.40765889309852     -1.06684278155221     -0.74187367985965
  H   -1.75050379778306     -0.10437544724042     -2.04569062815621
  O   0.55868550528291     -1.00928294489397      0.59884566817448
  C   1.66759877935830     -1.30268097348070      1.19901729403005
  O   1.72108077520831     -2.08847436881257      2.12004213174078
  H   4.08902231814298     -2.19302547083093      1.68670430774802
  H   4.93554501422500     -0.63523177557125      1.55184934796679
  H   4.70951926719986     -2.69088460234363     -0.63888681173095
  H   5.42915414974061     -1.07993533464151     -0.80138521596099
  H   2.53069003048195     -1.80933705391939     -1.23472263632929
  H   3.28294638241569     -0.21856103795590     -1.54699739645794
  H   -1.43231123076518      2.40368298508453     -2.60991723170842
  H   -0.49065683444396      3.90409710573644     -2.57465649941094
  C   -1.08266554784071      3.19170056895532     -0.62665230701556
  H   -2.04039362178803      3.70310944979832     -0.59402558796243
  H   -0.34363180389765      3.79945048094610     -0.11138448890085
  H   -1.16646869832575      2.24073609736735     -0.09511777715553
  H   0.01371029748218     -2.43967551853243     -1.92753303412727
  C   0.14860259696517     -1.21124637945949     -3.68983216080107
  H   -1.50198367273782     -2.31792714962307     -2.84401637088332
  H   0.47689995637057     -2.02344177455400     -4.33150870853794
  H   1.02738443209447     -0.67250698778835     -3.33442294232586
  H   -0.47325144693356     -0.53806389740268     -4.27715597065520
