37
Coordinates from ORCA-job opt
  Pt  1.14791859576899      0.41743429489132     -0.79385734646501
  I   1.52033492050690      0.76646312444487     -3.42903962499180
  I   0.80844038927435      0.08613965084677      1.84820594083487
  N   3.35900185737739      0.17346078234736     -0.52758040726767
  C   4.01017136078099     -0.99506705918457     -0.58795661757144
  C   5.41051327373548     -1.04563026855404     -0.40660425164847
  C   6.12798789376158      0.10527875385899     -0.16555125263414
  C   5.45332056198123      1.34164919712331     -0.09994814941820
  C   6.10975328448005      2.58978860038277      0.14451701928205
  C   5.40224614049100      3.75499952055184      0.19652949926824
  C   3.98339891650343      3.76237151454856      0.00851962536205
  C   3.30563284495295      2.54279488178722     -0.23503525979458
  C   4.05007327681892      1.31704778559429     -0.29042910951103
  N   1.96347017058015      2.47082802412070     -0.42256619677762
  C   1.22668113961873      3.58821748413681     -0.38004504836545
  C   1.83625237695113      4.84037720672768     -0.14166319673154
  C   3.19713991599688      4.93202132555499      0.05082035699860
  C   -0.25085251875125      3.47006545604680     -0.59169512993984
  C   3.21465564634374     -2.23583857998986     -0.85144256333661
  C   -0.87511928096037      0.05014177280183     -1.11353436409658
  C   -0.12579128768995     -1.18437351781174     -1.17130210106512
  H   5.90821156983479     -2.00861103822483     -0.46146179854682
  H   7.20550984962155      0.07094132534521     -0.02585272985503
  H   7.18709366054112      2.58936532958082      0.28804414997240
  H   5.90530899159759      4.70036574681320      0.38220051217511
  H   1.21081728471241      5.72699712337709     -0.11354362775278
  H   3.67022136639981      5.89339717521636      0.23441678356719
  H   -0.68189728246490      2.80282376341944      0.16239694349929
  H   -0.45092864916309      3.02346788990336     -1.57160488345256
  H   -0.73266552952901      4.44910564925019     -0.53136937332827
  H   2.68571587129925     -2.14223911977987     -1.80595940596518
  H   2.45584224545613     -2.36302659076458     -0.07184309707369
  H   3.86231928296524     -3.11570988310055     -0.87752174460679
  H   -1.48561855916938      0.25393696284507     -0.23670246442583
  H   -1.24282420669453      0.48563677787193     -2.03991198949479
  H   -0.19105353915911     -1.87864441641747     -0.33653230618710
  H   0.05186816522972     -1.64684664556131     -2.13965679065587
