42
Coordinates from ORCA-job opt
  Pt  0.98501239095379     -0.87924559904451     -0.28772835605790
  O   2.95961387342922     -0.62236754780058      0.00947495061972
  C   3.61317867401279      0.30196560154142     -0.61925142531605
  O   4.82399997753593      0.36512579637863     -0.57642826989897
  C   2.80961659127426      1.37464420546109     -1.37661538443019
  C   1.90534199918497      0.79068909533890     -2.47945790608497
  O   0.99050301047519     -0.05422420200119     -2.12743612466155
  O   2.01634029072617      1.17176813958262     -3.62533245356361
  N   -1.04950506342549     -1.24504278330807     -0.75704106841981
  C   -1.40639910982779     -2.66171146503953     -0.91772142956094
  C   -0.40202332796447     -3.33539877096755     -1.84077289187493
  H   -1.73915843208938     -0.76354290140726     -0.17977959882294
  H   -1.05390979928425     -0.80331251295749     -1.68356822170751
  N   1.12609354668680     -1.87707621639778      1.57612225881506
  C   0.26775248023103     -1.50717450603974      2.70792154283608
  C   0.28485143903041      0.00218483358187      2.89296274496917
  H   1.11274292656946     -2.88751854504290      1.43154601068465
  H   2.09696252341718     -1.62059095153330      1.78951039442700
  H   3.53558981014567      2.03001339191444     -1.86552197951781
  C   1.94378531941696      2.18997181665142     -0.40618764905510
  H   -2.41765438327544     -2.75946782620260     -1.33268314957200
  H   -1.39815496011676     -3.13812396416161      0.06780886173695
  H   -0.58563267846893     -4.40467336747137     -1.89311269764896
  H   0.61277214311822     -3.16449541648922     -1.47504505058318
  H   -0.47091697059924     -2.91899968098693     -2.84226479740210
  H   0.61043888763415     -1.99736765082914      3.62792632051351
  H   -0.75140540481517     -1.84853145661136      2.50199958360145
  H   -0.05286159671699      0.48872042785124      1.97774897480988
  H   1.29274092250987      0.34425510426132      3.11383048500767
  H   -0.36899370319516      0.29549491907340      3.70933354285757
  H   1.19243446929743      1.52288315022505      0.05155127586679
  H   1.40661279932183      2.95459903947661     -0.97379519204802
  C   2.76928934535187      2.85071706163650      0.69392367042578
  H   3.30804427097086      2.08393142668318      1.25449916407344
  C   1.89913521269043      3.66600629055592      1.64786326340915
  H   3.51605380516898      3.50279006998512      0.23735878756945
  H   1.37530243468654      4.44133244831013      1.08391994167869
  C   2.72673385859688      4.31527551093845      2.75022525441680
  H   1.14264667998040      3.01722294501345      2.09790265051810
  H   3.25066184678755      3.55814485251604      3.32969492707147
  H   2.09177497997406      4.88710345468395      3.42364246580429
  H   3.46720892060016      4.98685578263136      2.32269657451385
