13
Coordinates from ORCA-job opt
  Pt  1.03305712509478      0.03818101817543      0.02348138538762
  N   0.96426185077783     -1.88912014805885      0.34884528655025
  O   1.23393564508053     -2.34122021554453      1.47268845813188
  O   0.65153355884917     -2.66506409637358     -0.56781176113620
  N   2.95054028400179      0.03474914888689      0.40863020982714
  O   3.72966826818708     -0.60824633153059     -0.31224443580117
  O   3.39306393798054      0.67488028068296      1.37535329420614
  N   1.10167627127901      1.96564981442819     -0.30096651396699
  O   1.78546355571180      2.41652784715691     -1.23332131285760
  O   0.46166601488490      2.74286704547816      0.42461635083994
  N   -0.88416045443148      0.04136952325864     -0.36297901915899
  O   -1.69806781391512     -0.27421638292275      0.51912358019122
  O   -1.29181824350083      0.35861249636312     -1.49139552221324
