7
Coordinates from ORCA-job opt
  Pt  1.01251095276342      0.06632367891085     -0.02824689757657
  Br  1.01189139376158      0.28827027053774     -2.52507838475810
  Br  1.01510619313950     -2.43208376802403     -0.23166857808581
  Cl  -1.37595021705106      0.10798287489975      0.02451645217381
  Cl  1.01304964859620     -0.09636775025363      2.34838087785256
  Cl  1.01005657836770      2.43623991625219      0.21324861567031
  Cl  3.40089545042267      0.11300477767712      0.02377791472380
