11
Coordinates from ORCA-job opt
  Pt  0.22695301081637      0.80528984574144      0.25518433389622
  N   0.00959092273910     -1.32228827810843      0.00389269346685
  H   -1.01509058865053     -1.36399725512861      0.01746224504878
  H   0.37353322394741     -1.88776761475507      0.76508319240742
  H   2.84747996079025      0.44557018537998      0.98738839676293
  N   2.37716009455262      0.91461299949469      0.21903159238835
  H   0.34394779017649     -1.69123070572253     -0.88137285763788
  H   2.47202866509405      1.92877553879702      0.33837602114833
  H   2.80934540119496      0.64293613171151     -0.65903287254543
  Cl  0.36857246447785      3.02204165682537      0.51436894919149
  Cl  -2.00906094513858      0.77727749576461      0.28502830587293
