5
Coordinates from ORCA-job opt
  Br  0.99914599962814     -2.42494959829565      0.44555447249402
  Pt  1.00059903231782      0.04227836353394      0.01799296995847
  I   3.63114282483471     -0.00805736231588     -0.48120391594040
  I   1.00018164270078      2.68759823371903      0.50936616583973
  I   -1.62786949948144     -0.00684963664149     -0.49215969235181
