7
Coordinates from ORCA-job opt
  Pt  1.01626298651513      0.04016265050414     -0.03856898133425
  F   1.04520638885610     -0.19881412107042     -2.03031692252140
  Br  1.06185358697138     -2.48117715219110      0.21844394933990
  Br  -1.50901468867172      0.03388821852503     -0.08856269668648
  Br  1.06137889070335      0.34100624346963      2.46882551807117
  Br  1.06125062625744      2.55074165054314     -0.38530604828325
  F   3.02235220936833      0.03743251021959     -0.06318481858568
