5
Coordinates from ORCA-job opt
  Cl  0.99021578965240     -2.35526416764914      0.10238391225121
  Pt  0.99361694856258      0.00844829179211      0.00045740988312
  Br  3.47145658478638     -0.02944076446309      0.02125986902163
  Br  0.99715736490989      2.46864330493459     -0.10569144106366
  Br  -1.48432668809409     -0.02395666511553     -0.01694975009391
