34
Coordinates from ORCA-job opt
  Pt  -1.99593532664583     -1.05206790848242     -0.17302910245216
  N   -1.80094874231634      0.97729647619642      0.23465459371719
  C   -0.35477721665381      1.25027933131528      0.32736166274720
  C   0.38160547272124      0.07577503768625      0.97945268948590
  N   0.00894301769869     -1.19480460485103      0.33292297568607
  C   0.28160047712205     -2.32562416980767      1.22244236763888
  C   0.73671415772758     -1.39467982316469     -0.92271458057226
  C   -2.40422571581050      1.77077233702585     -0.83928606052761
  C   -2.48330184154485      1.28328523282808      1.49353474756153
  O   -2.03386833537567     -3.00171183603708     -0.66931868405966
  C   -3.12352492502372     -3.68765558705748     -0.53339169882962
  O   -3.22656242874384     -4.83152432805882     -0.91826373312459
  C   -4.27425324514129     -2.98682406881620      0.20813187802867
  C   -4.76839715528840     -1.75625373236130     -0.57329191179478
  O   -5.91049389672221     -1.68243529179050     -0.97008175257495
  O   -3.91338137489746     -0.79681332013341     -0.72811504179068
  H   -0.16938931647966      2.17037889876451      0.89770418026513
  H   0.02993268891652      1.40172259079549     -0.68386975956784
  H   0.10726453732699      0.01569039589352      2.03598491445282
  H   1.46673187810448      0.23697082175550      0.92269838920352
  H   -0.28118623816647     -2.21841483011536      2.14987258699551
  H   1.34997941489990     -2.39271634623571      1.45636707191609
  H   -0.03826804081596     -3.24367747860653      0.73099279963624
  H   -1.92590309359712      1.53543251262065     -1.78954151051753
  H   -2.30621387768294      2.84316254462644     -0.63804008422013
  H   -3.45792962863130      1.50772514557434     -0.92311352215659
  H   -3.89725119022768     -2.64622236966532      1.18144896855018
  H   -5.09897513441323     -3.68525215133068      0.34330918155874
  H   0.55678572245727     -0.56717240315948     -1.60763299858427
  H   0.37667353321813     -2.31101110517364     -1.39018563857768
  H   1.81447815814235     -1.48019023716677     -0.74040945670006
  H   -3.53803378198471      1.02931830851745      1.39306836477245
  H   -2.39662919943454      2.34923355861449      1.73629540865026
  H   -2.06173935273766      0.69999839979982      2.31176275518405
