11
Coordinates from ORCA-job opt
  Pt  0.23978853949968      0.78428736029331      0.24807886013256
  N   0.07763398689749     -1.32352027128452      0.12320400870976
  H   -0.53189089988455     -1.53363559250321     -0.67045501206403
  H   -0.41671131413730     -1.63835569679311      0.96114389023127
  H   2.86505986555547      0.00859441073688     -0.00626225976335
  N   2.34974185420207      0.88494838608208      0.09418351179519
  H   0.93814130064716     -1.86575557055835      0.02761674164323
  H   2.69107943012399      1.37215944112606      0.92586237904534
  H   2.56626785555415      1.48572153369401     -0.70445397426146
  I   0.38561148779106      3.38313408920554      0.40638093280905
  I   -2.36026210624922      0.71364191000133      0.44011092172243
