7
Coordinates from ORCA-job opt
  Pt  1.08761703717978     -0.01774077237161      0.06720144551642
  Cl  1.10563778862289     -2.38277897885226      0.09423651588682
  Br  1.09650322755912      0.01510456151925      2.58130228970308
  Br  -1.43470727689070     -0.03704054299303      0.07018070974476
  Cl  1.06955031239056      2.34720500830415      0.03286203066680
  Cl  1.07925871088369     -0.04861434541290     -2.30441859707555
  Br  3.60990020025465      0.00129506980639      0.05186560555766
