8
Coordinates from ORCA-job opt
  Pt  0.23787635675179     -1.41527335723914     -0.26563769401971
  N   0.49679707164188     -0.47309372982393     -2.09692023584215
  H   -0.39693800967912     -0.05713368540827     -2.38402993472652
  H   0.81208572905087     -1.15272841870950     -2.79237750705175
  H   1.21783699930906      0.24716505280540     -2.01669700690408
  Cl  -0.03647222403944     -2.46491301306123      1.76198749674110
  I   2.83046886002098     -2.00803736828551     -0.43026379356037
  I   -2.31013777269486     -0.65613351809861     -0.41654060363225
