7
Coordinates from ORCA-job opt
  Pt  1.07138479949867     -0.06459754277626      0.00258397438349
  Cl  1.07086400802322     -1.73249937836724     -1.68432128364624
  Cl  1.07441407766680     -1.75617428480254      1.66575970205391
  Cl  -1.30070313245703     -0.07607048969087      0.00495876930646
  Br  1.06203768836360      1.69660912733197      1.79687616914724
  Br  1.05844551339474      1.72158724388009     -1.76681169448680
  Br  3.58583704550999     -0.06527467557516      0.00006436324193
