37
Coordinates from ORCA-job opt
  Pt  1.17483745082046      0.45702988104898     -0.79052722319783
  Cl  1.81580079395614      0.83714940006975     -2.99412023600751
  I   0.65279865016234      0.14708322972356      1.77933912483626
  N   3.41746601991285      0.21454422477702     -0.36361246246922
  C   4.04541000333684     -0.94526174739594     -0.34881116172346
  C   5.44299924037084     -1.01017142866920     -0.21688104465067
  C   6.17286311545754      0.14462199046898     -0.10549758151837
  C   5.51004689947463      1.38362055671970     -0.11485167775414
  C   6.18169814920458      2.63169931973445      0.00400731848758
  C   5.49164087285866      3.79796463373468      0.00401357619510
  C   4.07435981046700      3.81006516826917     -0.11478602235608
  C   3.37542895326120      2.59204983374618     -0.24596741838657
  C   4.10599535909088      1.35734109424443     -0.24607599880375
  N   2.04228483140494      2.53867814691640     -0.36323659227897
  C   1.32798372293276      3.64740026634810     -0.34844569818318
  C   1.94389920322518      4.90364092658867     -0.21667827753774
  C   3.30744308280677      4.98746527159299     -0.10538478040391
  C   -0.14937639253218      3.51073807244507     -0.46727351892665
  C   3.21444836086759     -2.17439651260560     -0.46758659111405
  C   -0.79779963435755      0.11229559072810     -1.41050039399593
  C   -0.07677357021235     -1.10605917255768     -1.41085107252618
  H   5.92721129864598     -1.97423945533860     -0.20795561493169
  H   7.24864169205275      0.11708606253340     -0.00884175445934
  H   7.25766767975512      2.62361960459140      0.09791517651394
  H   6.00251629607532      4.74495068586674      0.09791613880785
  H   1.33199678416766      5.79215845595656     -0.20777016108764
  H   3.80117961737024      5.94365055812755     -0.00877647030157
  H   -0.38724172756289      2.88182959542058     -1.32634445652962
  H   -0.63172016156169      4.47735621262073     -0.58061932337952
  H   -0.54248811949018      3.02094047223552      0.42488880780447
  H   2.54645282253010     -2.07889317782112     -1.32476769399832
  H   2.59823229569074     -2.28475953195643      0.42600189002048
  H   3.82943068563721     -3.06216291777372     -0.58387262025633
  H   -1.53872491480502      0.28894247310098     -0.63389233628337
  H   -1.02071686168332      0.58042660194253     -2.36573434885193
  H   -0.27834041125661     -1.84089800138403     -0.63452553290948
  H   0.22601810206161     -1.52633638365004     -2.36636396809248
