9
Coordinates from ORCA-job opt
  Pt  0.72500997821420      0.26115361590037      0.02926507012927
  N   0.76229857461625     -1.74041995816850      0.27027925899856
  O   0.64996520323720     -2.49270612808976     -0.72229458977513
  O   0.89578085138605     -2.23064272936790      1.41291912364735
  N   2.72785472664108      0.27783249678481     -0.20354028704314
  O   3.22642270438318      0.15332962022700     -1.34357502381561
  O   3.47250257506584      0.41511698256617      0.79163972140280
  Cl  0.70064410258582      2.62436063311918     -0.25680427487923
  Cl  -1.63912164243514      0.22269235855537      0.30579952045275
