43
Coordinates from ORCA-job opt
  Pt  0.94790321270804     -0.39234837614510      0.58955178378986
  N   -0.59081078987725      0.82367279019775      1.40622439978797
  H   -1.12233429879886      1.37299118920953      0.73194523040715
  C   -1.48628060796620      0.19342038704567      2.38685669842119
  N   -0.14480420904936     -1.64132966885398     -0.70038230943904
  H   0.38650513148830     -2.51338793658434     -0.60671299080034
  C   -1.58009871546829     -1.92642106048101     -0.62999897687462
  O   2.08798207419033      0.70737644999497      1.82889840555283
  C   3.34689035956221      0.89102335987461      1.62701644598855
  C   4.05739134010448      0.21973137257973      0.43426128943822
  C   3.68938864684693     -1.22516698338232      0.04313799511230
  O   2.45478625498259     -1.59258107044999      0.00453911489808
  O   4.58597766153202     -1.97776335013005     -0.28715168024317
  C   3.93570408876626      1.12966021636737     -0.81534331569166
  C   2.56091959299968      1.12999046330503     -1.41010483728663
  C   1.58337282577458      2.02142971465273     -0.96369536014187
  C   0.32419581386019      2.04103366215976     -1.54828537387335
  C   0.01879993300269      1.16786430396271     -2.58003819707892
  C   0.98021594100312      0.27138074638240     -3.02385155469293
  C   2.23919983444707      0.25390799506663     -2.44449125841385
  O   3.99920388985516      1.63473565791570      2.33545539648255
  H   -2.20569121385332     -0.43347753869317      1.85319384165254
  H   -2.04578435169420      0.95856673085069      2.94007075481347
  C   -0.66736691679202     -0.64907854548264      3.35259140361938
  H   -2.12590997522140     -0.98376524981266     -0.73129622950473
  H   -1.80255453865997     -2.35755359061130      0.34913443327072
  C   -2.01810539024811     -2.89232634297258     -1.72698819808858
  H   5.11955776823848      0.19815699989402      0.70216220184220
  H   4.65286314234008      0.76918356942742     -1.55621029672625
  H   4.21751665243252      2.14243669594482     -0.51660815955447
  H   1.83539346188014      2.74171524369882     -0.19776234150980
  H   -0.40702956091720      2.77062532492317     -1.22723800328284
  H   -0.95534348294178      1.19743772808316     -3.04754880792746
  H   0.75899849032020     -0.39544603158956     -3.84658895888081
  H   2.98847995309128     -0.43512036917346     -2.80575267042301
  H   0.03179699786239      1.46288672328971      1.91268698887138
  H   0.08268204079879     -1.27157114263540     -1.63018320712257
  H   -3.08288513518627     -3.09324277500119     -1.65060169065684
  H   -1.48451992326510     -3.83592284001339     -1.63944056674124
  H   -1.81845928159355     -2.47083003674688     -2.70986035781676
  H   0.01999191908390     -0.02028130333408      3.91256358112460
  H   -0.07847597697311     -1.38022542906283      2.79450055149867
  H   -1.31497265866542     -1.17161768367043      4.05075482620004
