5
Coordinates from ORCA-job opt
  Cl  1.04985941004747     -2.33790312044482      0.00409564978289
  Pt  0.96943875366382      0.01019482815670      0.00565359625228
  Cl  3.29087635796713     -0.00022733516156      0.01042988107754
  Cl  1.07093144815063      2.35746987303011      0.00697318586610
  I   -1.66543015240225      0.02204789079883      0.00102038427378
