43
Coordinates from ORCA-job opt
  Pt  0.98008786380779      0.49675849872845      0.78364257245762
  N   0.95827829922896     -1.21718782794347      1.97447729112624
  C   0.31787228291298     -2.42306351531759      1.38466968035433
  C   2.22506050768492     -1.56034132696240      2.67325867782642
  N   2.23226497293830      0.07581462113581     -0.83236623857355
  C   3.68018682465584     -0.07903629532150     -0.53162850028098
  C   1.75865748471979     -0.96696198125609     -1.78124279939017
  O   -0.22047978755945      1.04881023379203      2.26807505538737
  C   -1.05586044992928      2.07905034046295      2.21211403818852
  C   -1.12911613672697      2.99348245688746      0.97582565316911
  C   -0.01536459591358      3.13449652569980     -0.07746934450573
  O   0.91637785502725      2.20213206724541     -0.23491112668216
  O   -0.01937919128880      4.12570506869951     -0.79534809080459
  C   -2.49329562016655      2.74626434975362      0.24143862841845
  C   -2.62865841801554      1.40491506227205     -0.44165325369041
  C   -3.16258289579605      0.30177730470057      0.23987993331918
  C   -3.30400949023414     -0.93301174640886     -0.39467095017316
  C   -2.91308256012510     -1.08753541699627     -1.72612503152814
  C   -2.38249245337430      0.00384739395297     -2.41665935524607
  C   -2.24239628138770      1.23731338533729     -1.77927698186989
  O   -1.81135966188899      2.30816184697257      3.14728635765167
  H   0.97509945381801     -2.83921976686870      0.61837442230653
  H   -0.62962118381351     -2.13097512221839      0.93105320345223
  H   0.14894935558912     -3.18227648620268      2.15927802092813
  H   2.94874134553006     -1.93106235695602      1.94442747077043
  H   2.04767415405484     -2.33850498169073      3.42671344416957
  H   2.61722108327027     -0.66216299808708      3.15089675005789
  H   3.99715586871225      0.74767372496957      0.10455379393106
  H   4.26541712093484     -0.08313036106308     -1.46016749909785
  H   3.83973751061625     -1.02378685836571     -0.00787861608214
  H   0.70927741151575     -0.78127127584838     -2.01184887828278
  H   1.86041748791924     -1.94889024545055     -1.31452144751506
  H   2.35800743249406     -0.94615498211230     -2.70064594055036
  H   -1.22569879514549      3.99972299053036      1.39592053136950
  H   -2.59881228745545      3.55090356618825     -0.49240785133182
  H   -3.27598133033786      2.86081664686800      0.99733761405698
  H   -3.47816705472066      0.41960978793833      1.27407228579473
  H   -3.73737435293179     -1.77128244645937      0.14611124704235
  H   -3.03974317259873     -2.04412164521002     -2.22704973570126
  H   -2.09379817420814     -0.10037429281348     -3.46008745083705
  H   -1.83805523164589      2.08702226540514     -2.32473097926049
  H   0.30978860074153     -0.83675434408092      2.68012719065200
  H   2.10876620909193      0.99078813609350     -1.29148379102671
