9
Coordinates from ORCA-job opt
  Pt  1.31358806125433      0.37119676612027     -0.64441457322319
  N   1.96758191015495     -1.00128103436385      0.67788913973982
  O   1.25831592954814     -1.99389957918292      0.95177716225133
  O   3.08389305132385     -0.86278530432911      1.22396533795014
  Cl  2.34545645263032     -0.86377070195382     -2.39630592476476
  Cl  0.53689700047018      2.00641699265917     -2.18781647371315
  N   0.44626128383454      1.40383054127153      0.85268084425562
  O   -0.73592371266277      1.16005781199960      1.17900441987037
  O   1.08927622237902      2.29071221750473      1.45551599099660
