7
Coordinates from ORCA-job opt
  Pt  0.95779190810025     -0.00430009078588     -0.07151420773884
  Br  0.95796423200663      0.68300634195809      2.34368677656443
  F   0.96014922520885      1.91557745972887     -0.56982866727106
  F   -1.01727176882832      0.02996669115321     -0.08058527073666
  Br  0.95773080001406     -0.58107980482678     -2.51572839998696
  Br  0.95488647732026     -2.41570102159595      0.55598890335715
  F   2.93292912617827      0.02544042436843     -0.07952913418806
