7
Coordinates from ORCA-job opt
  Pt  1.06835746885969      0.00470221948751      0.10935726310323
  F   1.06464939750333     -0.03431314813018     -1.87505712924979
  Cl  1.06981955143758     -2.36054166306500      0.11261437459636
  Cl  -1.29662595077635      0.00276553695151      0.07201138244868
  Cl  1.07262164557530      0.04962144625414      2.46098963543927
  Cl  1.06680369558449      2.36838291450839      0.02160524448466
  Cl  3.43319419181595      0.00564269399363      0.06326922917758
