5
Coordinates from ORCA-job opt
  I   1.22513170092271     -2.65967105577600      0.16225497808197
  Pt  1.25971142552112      0.01587623844557     -0.10658126229673
  Br  3.74464691143723     -0.03356028025618     -0.28038047133014
  I   1.29439073515459      2.69154936454213     -0.37418480026953
  Br  -1.22529077303565      0.06522573304448      0.06630155581443
