13
Coordinates from ORCA-job opt
  Pt  1.03309236433876      0.03812916767174      0.02342078494363
  N   0.96123819394421     -1.98326369223012      0.36454959500311
  O   1.24005706958573     -2.43521523956863      1.49547505446670
  O   0.63844222792352     -2.76079731206698     -0.55860195618653
  N   3.04411941700735      0.03442793923738      0.42771599665824
  O   3.82454196114249     -0.61977937647940     -0.29612369503835
  O   3.48694962776910      0.68632969350629      1.39718719434031
  N   1.10498497919887      2.05972818352034     -0.31695642016384
  O   1.80041175816516      2.51065034691405     -1.25184123649854
  O   0.45350891581444      2.83847079875109      0.41114372418388
  N   -0.97784188025312      0.04149522215472     -0.38168937861735
  O   -1.79395547945237     -0.28378862677195      0.50662678158109
  O   -1.38480521543691      0.36869534324056     -1.51672965909340
