7
Coordinates from ORCA-job opt
  Pt  1.01249470794530      0.08550942124324     -0.00552833330456
  Br  1.01183968790723      0.30483437202407     -2.51168115286637
  Br  1.01510869634982     -2.42165671193662     -0.21288014364148
  Cl  -1.35371739837893      0.08624093592395     -0.00148369603611
  Cl  1.01307591032166     -0.11229665533172      2.35908964779040
  Cl  1.01005808537270      2.44951868784252      0.19958093639339
  Cl  3.37870031048222      0.09121995023457     -0.00216725833527
